data_cif

_audit_creation_method             'generated by GULP'

_symmetry_space_group_name_H-M     'P 1'
_symmetry_Int_Tables_number        1
_symmetry_cell_setting             triclinic

_cell_length_a                       15.2340
_cell_length_b                       15.2262
_cell_length_c                        9.9940
_cell_angle_alpha                   90.0079
_cell_angle_beta                    90.0057
_cell_angle_gamma                   57.9675

loop_
_atom_site_label
_atom_site_fract_x
_atom_site_fract_y
_atom_site_fract_z
_atom_site_occupancy
  C1          0.13092      0.79170      0.49691  1.0000
  C1          0.12934      0.94803      0.49014  1.0000
  C1          0.07834      0.89691      0.49104  1.0000
  C2          0.08025      0.74534      0.49740  1.0000
  C2          0.07708      0.04811      0.48505  1.0000
  H3          0.99399      0.94097      0.48698  1.0000
  C1          0.23636      0.73737      0.50234  1.0000
  C1          0.28904      0.78684      0.50192  1.0000
  C1          0.23480      0.89231      0.49567  1.0000
  H3          0.27969      0.65310      0.50722  1.0000
  C2          0.38916      0.73317      0.50754  1.0000
  H3          0.27623      0.93257      0.49542  1.0000
  H3          0.42156      0.67999      0.42010  1.0000
  H3          0.42453      0.78108      0.50676  1.0000
  H3          0.41556      0.68641      0.60110  1.0000
  H3          0.03323      0.76408      0.40452  1.0000
  H3          0.13087      0.65948      0.50246  1.0000
  H3          0.02773      0.77034      0.58560  1.0000
  H3          0.02751      0.08052      0.57562  1.0000
  H3          0.12623      0.08197      0.48054  1.0000
  H3          0.02710      0.07572      0.39429  1.0000
  C1          0.74677      0.73608      0.50967  1.0000
  C1          0.64166      0.79638      0.51066  1.0000
  C1          0.80041      0.78488      0.50867  1.0000
  C1          0.59180      0.90188      0.51065  1.0000
  H3          0.59610      0.76086      0.51150  1.0000
  C1          0.75063      0.89041      0.50868  1.0000
  H3          0.88425      0.73991      0.50778  1.0000
  C1          0.64543      0.95074      0.50967  1.0000
  H3          0.50788      0.94668      0.51146  1.0000
  H3          0.79638      0.92580      0.50785  1.0000
  C1          0.74784      0.39636      0.50943  1.0000
  C1          0.79983      0.29086      0.50722  1.0000
  C1          0.64232      0.44844      0.51148  1.0000
  C1          0.74856      0.23930      0.50726  1.0000
  H3          0.88352      0.24635      0.50526  1.0000
  C1          0.59087      0.39700      0.51140  1.0000
  H3          0.59755      0.53230      0.51333  1.0000
  C1          0.64299      0.29134      0.50936  1.0000
  H3          0.79366      0.15535      0.50549  1.0000
  H3          0.50697      0.44203      0.51310  1.0000
  C1          0.08845      0.39370      0.50989  1.0000
  C1          0.13709      0.44743      0.50877  1.0000
  C1          0.14887      0.28856      0.51120  1.0000
  C1          0.24256      0.39784      0.50883  1.0000
  H3          0.09182      0.53121      0.50778  1.0000
  C1          0.25436      0.23882      0.51117  1.0000
  H3          0.11339      0.24302      0.51242  1.0000
  C1          0.30303      0.29264      0.50999  1.0000
  H3          0.27774      0.44379      0.50787  1.0000
  H3          0.29928      0.15486      0.51215  1.0000
  B4          0.96246      0.45493      0.50973  1.0000
  B4          0.80771      0.61010      0.50970  1.0000
  B4          0.80990      0.45790      0.50959  1.0000
  O5          0.90903      0.55631      0.50971  1.0000
  O5          0.91218      0.40617      0.50963  1.0000
  O5          0.75861      0.56018      0.50968  1.0000
  O5          0.63294      0.12706      0.50942  1.0000
  O5          0.48283      0.13029      0.50988  1.0000
  B4          0.58415      0.07681      0.50965  1.0000
  B4          0.42907      0.23166      0.50987  1.0000
  B4          0.58130      0.22938      0.50947  1.0000
  O5          0.47902      0.28077      0.50969  1.0000
