data_cif

_audit_creation_method             'generated by GULP'

_symmetry_space_group_name_H-M     'P 1'
_symmetry_Int_Tables_number        1
_symmetry_cell_setting             triclinic

_cell_length_a                       19.0310
_cell_length_b                       19.0305
_cell_length_c                       14.1010
_cell_angle_alpha                   90.0000
_cell_angle_beta                    90.0000
_cell_angle_gamma                  119.9992

loop_
_atom_site_label
_atom_site_fract_x
_atom_site_fract_y
_atom_site_fract_z
_atom_site_occupancy
  O1          0.45751      0.15738      0.34081  1.0000
  O1          0.84037      0.30050      0.34082  1.0000
  O1          0.69725      0.54024      0.34081  1.0000
  O1          0.53924      0.84137      0.34082  1.0000
  O1          0.15638      0.69826      0.34082  1.0000
  O1          0.29950      0.45851      0.34082  1.0000
  O1          0.15638      0.45851      0.34082  1.0000
  O1          0.29950      0.84137      0.34082  1.0000
  O1          0.53924      0.69825      0.34082  1.0000
  O1          0.84037      0.54025      0.34082  1.0000
  O1          0.69725      0.15738      0.34082  1.0000
  O1          0.45751      0.30050      0.34081  1.0000
  O1          0.53924      0.84137      0.66124  1.0000
  O1          0.15638      0.69826      0.66124  1.0000
  O1          0.29950      0.45851      0.66124  1.0000
  O1          0.45751      0.15739      0.66124  1.0000
  O1          0.84037      0.30050      0.66124  1.0000
  O1          0.69725      0.54025      0.66123  1.0000
  O1          0.84037      0.54025      0.66124  1.0000
  O1          0.69725      0.15738      0.66124  1.0000
  O1          0.45751      0.30050      0.66124  1.0000
  O1          0.15638      0.45851      0.66124  1.0000
  O1          0.29950      0.84138      0.66124  1.0000
  O1          0.53924      0.69825      0.66124  1.0000
  O1          0.55076      0.10414      0.37901  1.0000
  O1          0.89361      0.44699      0.37902  1.0000
  O1          0.55075      0.44700      0.37901  1.0000
  O1          0.44599      0.89462      0.37901  1.0000
  O1          0.10313      0.55176      0.37902  1.0000
  O1          0.44599      0.55176      0.37901  1.0000
  O1          0.44599      0.89462      0.62304  1.0000
  O1          0.10313      0.55176      0.62305  1.0000
  O1          0.44599      0.55176      0.62304  1.0000
  O1          0.55076      0.10414      0.62304  1.0000
  O1          0.89362      0.44700      0.62305  1.0000
  O1          0.55076      0.44700      0.62304  1.0000
  O1          0.40538      0.99938      0.37570  1.0000
  O1          0.99837      0.40638      0.37570  1.0000
  O1          0.59137      0.59237      0.37569  1.0000
  O1          0.59137      0.99937      0.37570  1.0000
  O1          0.99837      0.59237      0.37570  1.0000
  O1          0.40538      0.40638      0.37569  1.0000
  O1          0.59137      0.99937      0.62636  1.0000
  O1          0.99837      0.59238      0.62636  1.0000
  O1          0.40538      0.40638      0.62636  1.0000
  O1          0.40538      0.99938      0.62636  1.0000
  O1          0.99838      0.40638      0.62636  1.0000
  O1          0.59137      0.59237      0.62636  1.0000
  O1          0.46140      0.10410      0.50103  1.0000
  O1          0.89366      0.35768      0.50103  1.0000
  O1          0.64006      0.53635      0.50102  1.0000
  O1          0.53535      0.89466      0.50103  1.0000
  O1          0.10309      0.64107      0.50103  1.0000
  O1          0.35668      0.46240      0.50103  1.0000
  O1          0.10309      0.46240      0.50103  1.0000
  O1          0.35668      0.89466      0.50103  1.0000
  O1          0.53535      0.64107      0.50103  1.0000
  O1          0.89366      0.53635      0.50103  1.0000
  O1          0.64007      0.10409      0.50103  1.0000
  O1          0.46140      0.35768      0.50102  1.0000
  O1          0.50705      0.25371      0.19242  1.0000
  O1          0.74404      0.25371      0.19243  1.0000
  O1          0.74404      0.49070      0.19243  1.0000
  O1          0.48969      0.74504      0.19243  1.0000
  O1          0.25270      0.74504      0.19243  1.0000
  O1          0.25270      0.50805      0.19243  1.0000
  O1          0.48970      0.74504      0.80963  1.0000
  O1          0.25271      0.74505      0.80963  1.0000
  O1          0.25271      0.50805      0.80963  1.0000
  O1          0.50705      0.25372      0.80962  1.0000
  O1          0.74404      0.25371      0.80962  1.0000
  O1          0.74404      0.49071      0.80962  1.0000
  O2          0.57935      0.28987      0.34768  1.0000
  O2          0.70789      0.28986      0.34768  1.0000
  O2          0.70789      0.41840      0.34768  1.0000
  O2          0.41739      0.70889      0.34768  1.0000
  O2          0.28886      0.70889      0.34768  1.0000
  O2          0.28886      0.58036      0.34769  1.0000
  O2          0.41739      0.70889      0.65438  1.0000
  O2          0.28886      0.70889      0.65438  1.0000
  O2          0.28886      0.58036      0.65438  1.0000
  O2          0.57936      0.28987      0.65437  1.0000
  O2          0.70789      0.28987      0.65437  1.0000
  O2          0.70789      0.41840      0.65437  1.0000
  O1          0.53588      0.26813      0.00102  1.0000
  O1          0.72962      0.26812      0.00103  1.0000
  O1          0.72963      0.46187      0.00102  1.0000
  O1          0.46086      0.73062      0.00103  1.0000
  O1          0.26712      0.73063      0.00103  1.0000
  O1          0.26712      0.53688      0.00103  1.0000
  O3          0.62032      0.24325      0.11722  1.0000
  O3          0.75449      0.37743      0.11722  1.0000
  O3          0.62032      0.37744      0.11722  1.0000
  O3          0.37642      0.75550      0.11723  1.0000
  O3          0.24225      0.62132      0.11723  1.0000
  O3          0.37642      0.62132      0.11723  1.0000
  O3          0.37643      0.75550      0.88483  1.0000
  O3          0.24225      0.62132      0.88483  1.0000
  O3          0.37643      0.62132      0.88483  1.0000
  O3          0.62032      0.24326      0.88482  1.0000
  O3          0.75449      0.37743      0.88483  1.0000
  O3          0.62032      0.37744      0.88483  1.0000
  O2          0.66504      0.33271      0.50102  1.0000
  O2          0.33170      0.66605      0.50103  1.0000
  Si4         0.46730      0.09061      0.39738  1.0000
  Si4         0.90714      0.37707      0.39738  1.0000
  Si4         0.62068      0.53045      0.39738  1.0000
  Si4         0.52945      0.90814      0.39738  1.0000
  Si4         0.08960      0.62169      0.39738  1.0000
  Si4         0.37607      0.46830      0.39738  1.0000
  Si4         0.08960      0.46830      0.39739  1.0000
  Si4         0.37607      0.90815      0.39738  1.0000
  Si4         0.52945      0.62168      0.39738  1.0000
  Si4         0.90714      0.53045      0.39738  1.0000
  Si4         0.62068      0.09061      0.39738  1.0000
  Si4         0.46730      0.37707      0.39738  1.0000
  Si4         0.52945      0.90814      0.60468  1.0000
  Si4         0.08960      0.62169      0.60468  1.0000
  Si4         0.37607      0.46830      0.60468  1.0000
  Si4         0.46730      0.09061      0.60467  1.0000
  Si4         0.90715      0.37707      0.60468  1.0000
  Si4         0.62068      0.53045      0.60467  1.0000
  Si4         0.90714      0.53046      0.60468  1.0000
  Si4         0.62068      0.09061      0.60467  1.0000
  Si4         0.46730      0.37707      0.60467  1.0000
  Si4         0.08961      0.46830      0.60468  1.0000
  Si4         0.37607      0.90815      0.60468  1.0000
  Si4         0.52945      0.62168      0.60467  1.0000
  Si4         0.49469      0.24754      0.30300  1.0000
  Si4         0.75022      0.24753      0.30300  1.0000
  Si4         0.75022      0.50306      0.30300  1.0000
  Si4         0.50205      0.75122      0.30300  1.0000
  Si4         0.24653      0.75122      0.30301  1.0000
  Si4         0.24653      0.49569      0.30301  1.0000
  Si4         0.50205      0.75122      0.69905  1.0000
  Si4         0.24653      0.75122      0.69905  1.0000
  Si4         0.24653      0.49569      0.69905  1.0000
  Si4         0.49470      0.24754      0.69905  1.0000
  Si4         0.75022      0.24753      0.69905  1.0000
  Si4         0.75022      0.50306      0.69905  1.0000
  Si4         0.56655      0.28346      0.10607  1.0000
  Si4         0.71429      0.28346      0.10607  1.0000
  Si4         0.71429      0.43120      0.10607  1.0000
  Si4         0.43019      0.71529      0.10608  1.0000
  Si4         0.28245      0.71529      0.10608  1.0000
  Si4         0.28245      0.56755      0.10608  1.0000
  Si4         0.43019      0.71529      0.89598  1.0000
  Si4         0.28246      0.71529      0.89598  1.0000
  Si4         0.28245      0.56755      0.89598  1.0000
  Si4         0.56655      0.28346      0.89598  1.0000
  Si4         0.71429      0.28346      0.89598  1.0000
  Si4         0.71429      0.43120      0.89598  1.0000
  Si4         0.66504      0.33271      0.38904  1.0000
  Si4         0.33170      0.66604      0.38905  1.0000
  Si4         0.33170      0.66605      0.61302  1.0000
  Si4         0.66505      0.33271      0.61301  1.0000
